Version 4
SHEET 1 3420 1192
WIRE -1632 -2080 -1632 -2112
WIRE -1520 -2080 -1520 -2112
WIRE -1408 -2080 -1408 -2112
WIRE -1296 -2080 -1296 -2112
WIRE -1632 -1968 -1632 -2000
WIRE -1520 -1968 -1520 -2000
WIRE -1408 -1968 -1408 -2000
WIRE -1296 -1968 -1296 -2000
WIRE -1392 -1696 -1408 -1696
WIRE -1280 -1696 -1312 -1696
WIRE -1184 -1696 -1280 -1696
WIRE -976 -1696 -1104 -1696
WIRE -832 -1696 -976 -1696
WIRE -1408 -1664 -1408 -1696
WIRE -3040 -1648 -3120 -1648
WIRE -2992 -1648 -3040 -1648
WIRE -2720 -1648 -2912 -1648
WIRE -2592 -1648 -2720 -1648
WIRE -2464 -1648 -2592 -1648
WIRE -2272 -1648 -2464 -1648
WIRE -2080 -1648 -2272 -1648
WIRE -1904 -1648 -2080 -1648
WIRE -1712 -1648 -1904 -1648
WIRE -1504 -1648 -1712 -1648
WIRE -1712 -1632 -1712 -1648
WIRE -1504 -1632 -1504 -1648
WIRE -3120 -1616 -3120 -1648
WIRE -3040 -1616 -3040 -1648
WIRE -2720 -1600 -2720 -1648
WIRE -2464 -1600 -2464 -1648
WIRE -2272 -1600 -2272 -1648
WIRE -2080 -1600 -2080 -1648
WIRE -1904 -1600 -1904 -1648
WIRE -1184 -1600 -1184 -1616
WIRE -1280 -1584 -1280 -1696
WIRE -1216 -1584 -1280 -1584
WIRE -976 -1568 -976 -1696
WIRE -976 -1568 -1152 -1568
WIRE -928 -1568 -976 -1568
WIRE -816 -1568 -848 -1568
WIRE -768 -1568 -816 -1568
WIRE -1712 -1552 -1712 -1568
WIRE -1552 -1552 -1712 -1552
WIRE -1504 -1552 -1504 -1568
WIRE -1216 -1552 -1504 -1552
WIRE -816 -1536 -816 -1568
WIRE -1184 -1520 -1184 -1536
WIRE -3120 -1504 -3120 -1536
WIRE -1712 -1504 -1712 -1552
WIRE -1504 -1504 -1504 -1552
WIRE -2464 -1488 -2464 -1520
WIRE -2272 -1488 -2272 -1520
WIRE -2080 -1488 -2080 -1520
WIRE -1904 -1488 -1904 -1520
WIRE -2720 -1472 -2720 -1520
WIRE -2608 -1472 -2720 -1472
WIRE -2720 -1456 -2720 -1472
WIRE -3040 -1440 -3040 -1552
WIRE -816 -1440 -816 -1456
WIRE -2464 -1392 -2464 -1424
WIRE -2272 -1392 -2272 -1424
WIRE -2080 -1392 -2080 -1424
WIRE -1904 -1392 -1904 -1424
WIRE -1712 -1392 -1712 -1424
WIRE -1504 -1392 -1504 -1424
WIRE -2608 -1376 -2608 -1472
WIRE -2720 -1360 -2720 -1392
WIRE -1392 -1296 -1408 -1296
WIRE -1296 -1296 -1312 -1296
WIRE -1184 -1296 -1296 -1296
WIRE -976 -1296 -1104 -1296
WIRE -832 -1296 -976 -1296
WIRE -1408 -1264 -1408 -1296
WIRE -2608 -1248 -2608 -1296
WIRE -1184 -1200 -1184 -1216
WIRE -1296 -1184 -1296 -1296
WIRE -1216 -1184 -1296 -1184
WIRE -976 -1168 -976 -1296
WIRE -976 -1168 -1152 -1168
WIRE -928 -1168 -976 -1168
WIRE -832 -1168 -848 -1168
WIRE -784 -1168 -832 -1168
WIRE -1552 -1152 -1552 -1552
WIRE -1216 -1152 -1552 -1152
WIRE -832 -1136 -832 -1168
WIRE -1184 -1120 -1184 -1136
WIRE -832 -1040 -832 -1056
WIRE -2608 -848 -2608 -1168
FLAG -3120 -1504 0
FLAG -1712 -1392 0
FLAG -1632 -1968 0
FLAG -1520 -1968 0
FLAG -1632 -2112 vcc
FLAG -1520 -2112 vee
FLAG -768 -1568 45MEG
FLAG -2080 -1392 0
FLAG -1184 -1120 vee
FLAG -1184 -1216 vcc
FLAG -1408 -1264 0
FLAG -784 -1168 9MEG
FLAG -832 -1040 0
FLAG -2272 -1392 0
FLAG -1184 -1520 vee
FLAG -1184 -1616 vcc
FLAG -1408 -1664 0
FLAG -816 -1440 0
FLAG -1408 -1968 0
FLAG -1408 -2112 n15
FLAG -1504 -1392 0
FLAG -1296 -1968 0
FLAG -1296 -2112 p15
FLAG -2720 -1360 0
FLAG -2464 -1392 0
FLAG -1904 -1392 0
FLAG -2592 -1648 Anode
FLAG -832 -1296 9MHz_opamp_out
FLAG -832 -1696 45MHz_opamp_out
FLAG -3040 -1360 0
FLAG -2608 -848 0
SYMBOL current -3120 -1536 R180
WINDOW 123 31 73 Left 2
WINDOW 39 0 0 Left 2
WINDOW 0 51 46 Left 2
SYMATTR Value2 AC 1
SYMATTR InstName I1
SYMATTR Value ""
SYMBOL cap -1728 -1632 R0
WINDOW 0 46 8 Left 2
WINDOW 3 41 33 Left 2
SYMATTR InstName C1
SYMATTR Value 173.73e-12
SYMBOL cap -1520 -1632 R0
WINDOW 3 40 43 Left 2
SYMATTR Value 26.3pF
SYMATTR InstName C2
SYMBOL voltage -1632 -2096 R0
WINDOW 123 0 0 Left 2
WINDOW 39 0 0 Left 2
SYMATTR InstName V1
SYMATTR Value 5
SYMBOL voltage -1520 -2096 R0
WINDOW 123 0 0 Left 2
WINDOW 39 0 0 Left 2
SYMATTR InstName V2
SYMATTR Value -5
SYMBOL cap -2096 -1488 R0
SYMATTR InstName C3
SYMATTR Value 87pF
SYMBOL Opamps\\opamp2 -1184 -1232 R0
SYMATTR InstName U6
SYMATTR Value LMH6624
SYMBOL res -1296 -1312 R90
WINDOW 0 0 56 VBottom 2
WINDOW 3 32 56 VTop 2
SYMATTR InstName R5
SYMATTR Value 50,noiseless
SYMBOL res -1088 -1312 R90
WINDOW 0 0 56 VBottom 2
WINDOW 3 32 56 VTop 2
SYMATTR InstName R6
SYMATTR Value 453,noiseless
SYMBOL res -832 -1184 R90
WINDOW 0 0 56 VBottom 2
WINDOW 3 32 56 VTop 2
SYMATTR InstName R7
SYMATTR Value 50 ,noiseless
SYMBOL res -816 -1040 R180
WINDOW 0 -33 78 Left 2
WINDOW 3 -31 40 Left 2
SYMATTR InstName R8
SYMATTR Value 50,noiseless
SYMBOL 1008CS_182 -1728 -1520 R0
SYMATTR InstName U7
SYMBOL cap -3056 -1616 R0
SYMATTR InstName C4
SYMATTR Value 102p
SYMBOL Opamps\\opamp2 -1184 -1632 R0
SYMATTR InstName U2
SYMATTR Value LMH6624
SYMBOL res -1296 -1712 R90
WINDOW 0 0 56 VBottom 2
WINDOW 3 32 56 VTop 2
SYMATTR InstName R1
SYMATTR Value 50,noiseless
SYMBOL res -1088 -1712 R90
WINDOW 0 0 56 VBottom 2
WINDOW 3 32 56 VTop 2
SYMATTR InstName R2
SYMATTR Value 453,noiseless
SYMBOL res -832 -1584 R90
WINDOW 0 0 56 VBottom 2
WINDOW 3 32 56 VTop 2
SYMATTR InstName R3
SYMATTR Value 50,noiseless
SYMBOL res -800 -1440 R180
WINDOW 0 -33 78 Left 2
WINDOW 3 -31 40 Left 2
SYMATTR InstName R4
SYMATTR Value 50,noiseless
SYMBOL res -2896 -1664 R90
WINDOW 0 0 56 VBottom 2
WINDOW 3 32 56 VTop 2
SYMATTR InstName R10
SYMATTR Value 6.7
SYMBOL cap -2288 -1488 R0
SYMATTR InstName C6
SYMATTR Value 109pF
SYMBOL voltage -1408 -2096 R0
WINDOW 123 0 0 Left 2
WINDOW 39 0 0 Left 2
SYMATTR InstName V4
SYMATTR Value -15
SYMBOL cap -2736 -1456 R0
WINDOW 0 -57 -4 Left 2
WINDOW 3 -72 29 Left 2
SYMATTR InstName C10
SYMATTR Value 100nF
SYMBOL voltage -1296 -2096 R0
WINDOW 123 0 0 Left 2
WINDOW 39 0 0 Left 2
SYMATTR InstName V5
SYMATTR Value 15
SYMBOL 1008LS_103XJL -2624 -1392 R0
SYMATTR InstName U4
SYMBOL res -2624 -1264 R0
SYMATTR InstName R17
SYMATTR Value 4.7
SYMBOL cap -2480 -1488 R0
SYMATTR InstName C13
SYMATTR Value 208pF
SYMBOL 1008CS_101 -1920 -1616 R0
SYMATTR InstName U12
SYMBOL cap -1920 -1488 R0
SYMATTR InstName C14
SYMATTR Value 31pF
SYMBOL 1008CS_391 -2480 -1616 R0
SYMATTR InstName U14
SYMBOL 1008CS_181 -2288 -1616 R0
SYMATTR InstName U13
SYMBOL 1008CS_101 -2096 -1616 R0
SYMATTR InstName U8
SYMBOL voltage -3040 -1456 R0
WINDOW 123 24 44 Left 2
WINDOW 39 0 0 Left 2
SYMATTR Value2 AC 0
SYMATTR InstName V6
SYMATTR Value 0
SYMBOL 1008CS_471 -1520 -1520 R0
SYMATTR InstName U5
SYMBOL 1008CS_101 -2736 -1616 R0
SYMATTR InstName U1
TEXT -3912 -424 Left 2 !.INCLUDE richlib.lib\n.INCLUDE rich_photodiode.lib\n.INCLUDE rich_coilcraft.lib
TEXT -3592 -856 Left 2 !;ac dec 1000 8e6 100e6
TEXT -1744 -1672 Left 2 ;9 MHz
TEXT -1544 -1672 Left 2 ;45 MHz
TEXT -2296 -1672 Left 2 ;36 MHz
TEXT -2112 -1672 Left 2 ;54 MHz
TEXT -3568 -1256 Left 2 ;Designed for LSC Application: \n9 and 45 MHz Readout
TEXT -3600 -816 Left 2 !.noise V(9MHz_opamp_out) I1 oct 100 8e6 60e6
TEXT -3576 -1000 Left 2 ;(V(onoise)/gain)**2/3.2e-19\nYields DC photocurrent from input noise
TEXT -3200 -1736 Left 2 ;Photodiode\nMeasured Parameters\nSee notes page 61
TEXT -2720 -472 Left 2 ;5/5/2023 changed by S. \nTruncated the DC part of the circuit\nOPAMP changed to LMH6624 from max4107.
TEXT -2488 -1672 Left 2 ;18 MHz
TEXT -3608 -624 Left 2 ;freq      Max R\n --------   -------\n 18 MHz      7.5 ohm\n 36 MHz      13 ohms\n 54 MHz      34 ohms\n 90 MHz      25 ohms
TEXT -1936 -1672 Left 2 ;90 MHz
TEXT -3576 -1184 Left 2 !.meas AC Zout9 find V(9MEG) when freq = 9e6\n.meas AC Zout45 find V(45MEG) when freq = 45e6\n.meas AC Z18 find V(Anode)/I(C13) when freq = 18e6\n.meas AC Z36 find V(Anode)/I(C6) when freq = 36e6\n.meas AC Z54 find V(Anode)/I(C3) when freq = 54e6\n.meas AC Z90 find V(Anode)/I(C14) when freq = 90e6
TEXT -3608 -728 Left 2 ;9 MHz input current for SNR=1 is: 1.3mA\n45 MHz input current for SNR=1 is: 2.0mA
TEXT -3496 -912 Left 2 !;op
TEXT -3424 -912 Left 2 !;tran 100u
TEXT -2416 -728 Left 2 !.include LMH6624.MOD
RECTANGLE Normal -2880 -1472 -3216 -1760
