* ADA4077 SPICE DMod model Typical values
* Description: Amplifier
* Generic Desc: 30V, BIP, OP, Low Noise, Low THD, 2X
* Developed by: RM ADSJ
* Revision History: 1.0 03/31/2015 - Updated to new header style
* 0.0 (11/2012)
* Copyright 2008, 2012,2015 by Analog Devices
*
* Refer to "README.DOC" file for License Statement.  Use of this
* model indicates your acceptance of the terms and provisions in
* the License Statement.
*
* Node Assignments
*		        noninverting input
*	            	|	inverting input
*		            |	|	positive supply
*		            |	|	|	negative supply
*		            |	|	|	|	 output
*		            |	|	|	|	 |
* 		            |	|	|	|	 |
.SUBCKT ADA4077-1  	1	2	99	50	45
*
*INPUT STAGE
*
Q1   15 7 60 NIX
Q2   6 2 61 NIX
IOS  1 2 1.75E-10
I1  5 50 77e-6
EOS  7  1 POLY(4) (14,98) (73,98) (81,98) (70,98)  10E-6 1 1 1 1
RC1  11 15 2.6E4
RC2  11 6 2.6E4
RE1 60 5 0.896E2
RE2 61 5 0.896E2
C1   15 6 4.25E-13
D1  50 9 DX
V1  5  9 DC 1.8
D10 99 10 DX
V6 10 11 1.3
*
* CMRR
*
ECM   13 98 POLY(2) (1,98) (2,98) 0 7.192E-4 7.192E-4
RCM1  13 14 2.15E2
RCM2  14 98 5.31E-3
CCM1  13 14 1E-6
*
* PSRR
*
EPSY 72 98 POLY(1) (99,50) -1.683 0.056
CPS3 72 73 1E-6
RPS3 72 73 7.9577E+1
RPS4 73 98 6.5915E-4
*
* EXTRA POLE AND ZERO
*
G1 21 98 (6,15) 26E-6
R1 21 98 9.8E4
R2 21 22 9E6
C2 22 98 1.7614E-12
D3 21 99 DX
D4 50 21 DX
*
* VOLTAGE NOISE
*
VN1 80 98 0
RN1 80 98 16.45E-3
HN  81 98 VN1 6
RN2 81 98 1
*
* FLICKER NOISE
*
D5 69 98 DNOISE
VSN 69 98 DC .60551
H1 70 98 VSN 30.85
RN 70 98 1
*
* INTERNAL VOLTAGE REFERENCE
*
EREF 98  0 POLY(2) (99,0) (50,0) 0 .5 .5
GSY  99 50 POLY(1) (99,50) 130E-6 1.7495E-10
*
* GAIN STAGE
*
G2  98 25 (21,98) 1E-6
R5  25 98 9.9E7
CF  45 25 2.69E-12
V4 25 33 5.3
D7 51 33 DX
EVN 51 98 (50,99) 0.5
V3 32 25 5.3
D6 32 97 DX
EVP 97 98 (99,50) 0.5
*
* OUTPUT STAGE
*
Q3   45 41 99 POUT
Q4   45 43 50 NOUT
RB1  40 41 9.25E4
RB2  42 43 9.25E4
EB1  99 40 POLY(1) (98,25) 0.7153  1
EB2  42 50 POLY(1) (25,98) 0.7153  1
*
* MODELS
*
.MODEL NIX NPN (BF=71429,IS=1E-16)
.MODEL POUT PNP (BF=200,VAF=50,BR=70,IS=1E-15,RC=71.25)
.MODEL NOUT NPN (BF=200,VAF=50,BR=22,IS=1E-15,RC=29.2)
.MODEL DX D(IS=1E-16, RS=5, KF=1E-15)
.MODEL DNOISE D(IS=1E-16,RS=0,KF=1.095E-14)
.ENDS ADA4077
*$

* LM3886
*****************************************************************************
* (C) Copyright 2012 Texas Instruments Incorporated. All rights reserved.
*****************************************************************************
** This model is designed as an aid for customers of Texas Instruments.
** TI and its licensors and suppliers make no warranties, either expressed
** or implied, with respect to this model, including the warranties of
** merchantability or fitness for a particular purpose.  The model is
** provided solely on an "as is" basis.  The entire risk as to its quality
** and performance is with the customer.
*****************************************************************************
*
** Released by: WEBENCH(R) Design Center, Texas Instruments Inc.
* Part: LM3886
* Date: 7/5/2012
* Model Type: All In One
* Simulator: Pspice
* Simulator Version: 16.0
* EVM Order Number: N/A
* EVM Users Guide: N/A
* Datasheet:
*
* Model Version: 1.1
*
*****************************************************************************
*
* Updates:
*
* Version 1.0 : Release to Web
*
*****************************************************************************
* Notes:* The following parameters are being modeled:
* Open Loop Gain, Closed Loop Gain, GBWP, Slew Rate, Offset
* Voltage,Ibias, Quisent current, Output Swing, Short Circuit
* Current, PSRR+ ,CMRR, Icc trans current and Mute current.
*****************************************************************************

.SUBCKT lm3886_new Vip Vin VDD VSS Vout MUTE
IS2         VDD 19 200N
IS3         18 VSS -210N
Vos         19 20 1M
XU7         VDD VSS Vimon PD ILOAD_PD_0
XU2         12 10 11 GNDF PD GBW_SLEW_SE_0
+ PARAMS: AOL=115 GBW=8MEG SRP=19.1MEG SRN=19.1MEG IT=1M VON=0.5 ROFF=1M
XU3         14 13 PD OUT_CURRENT_CLAMP_PD_0
+ PARAMS: RON=0.1 ROFF=100MEG VON=0.5 IMAX=11.5 IMIN=-11.5
XU5         MUTE PD VDD VSS IV110_0
XU4         VDD GNDF 15 16 GNDF PSRR_0
+ PARAMS: PSRR=120 FPSRR=8K
XU_TF       11 17 GNDF TF_0
+ PARAMS: FZ1=10G FZ2=10G FZ3=10G FZ4=10G FZ5=10G FP1=10E6 FP2=10G FP3=10G
+ FP4=10G
XU1         VDD VSS PD IQ_IOFF_0
+ PARAMS: VON=0.5 IQQ=50M IOFF=0.5M
XD4         VSS 18 IDEAL_DIODE_0
+ PARAMS: EMCO=0.01 BRKV=60 IBRKV=1M
XD3         18 VDD IDEAL_DIODE_0
+ PARAMS: EMCO=0.01 BRKV=60 IBRKV=1M
XD2         VSS 19 IDEAL_DIODE_0
+ PARAMS: EMCO=0.01 BRKV=60 IBRKV=1M
XD1         19 VDD IDEAL_DIODE_0
+ PARAMS: EMCO=0.01 BRKV=60 IBRKV=1M
XU_GND      VDD VSS GNDF GND_FLOAT_0
XU6         13 Vout Vimon AMETER_0
+ PARAMS: GAIN=1
XU_CLAW     VDD VSS 17 14 Vimon GNDF VCLAMP_W_SENSE_0
+ PARAMS: VMAXIO=1.6 VMINIO=2.5 SLOPE=0
XU2_VCLAMP  VDD VSS 18 10 GNDF VCLAMP_0
+ PARAMS: VMAX=0.1 VMIN=0.1
XU1_VCLAMP  VDD VSS 19 12 GNDF VCLAMP_0
+ PARAMS: VMAX=0.1 VMIN=0.1
XU_CMRR     16 18 GNDF CMRR_0
+ PARAMS: CMRR=110 FCMRR=20
XU_PSRR     VSS GNDF 21 15 GNDF PSRR_0
+ PARAMS: PSRR=105 FPSRR=40
XU_INOISE   20 21 FEMT_0
+ PARAMS: NLFF=0.1 FLWF=0.001 NVRF=0.1
XU_VNOISE   22 20 VNSE_0
+ PARAMS: NLF=10 FLW=4 NVR=2000
XUINPUT     Vip Vin 22 21 GNDF INPUT_0
+ PARAMS: RCM=1 CCM=1000F CDM=100F
.ENDS


.SUBCKT ILOAD_PD_0   VDD VSS VIMON PD
+ PARAMS: VON = 0.5
G1 VDD 0 VALUE = {IF(V(VIMON) >= 0 & V(PD) < VON,V(VIMON),0)}
G2 0 VSS VALUE = {IF(V(VIMON) < 0 & V(PD) < VON,V(VIMON),0)}
.ENDS


**************************************
**                                  **
**                                  **
**                                  **
**                                  **
**************************************

.SUBCKT GBW_SLEW_SE_0    VIP  VIM  VO  GNDF  PD
+ PARAMS: AOL = 100  GBW = 1MEG  SRP = 1MEG  SRN = 1MEG IT = 1M
+ VON = 0.5 ROFF = 1M
.PARAM PI = 3.141592
.PARAM IP = {IF(SRP <= SRN,IT,IT*(SRP/SRN))}
.PARAM IN = {IF(SRN <= SRP,-IT,-IT*(SRN/SRP))}
.PARAM CC = {IF(SRP <= SRN,IT/SRP,IT/SRN)}
.PARAM FP = {GBW/PWR(10,AOL/20)}
.PARAM RC = {1/(2*PI*CC*FP)}
.PARAM GC = {PWR(10,AOL/20)/RC}
G1          GNDF VO VALUE = {IF(V(PD) >= VON,LIMIT(GC*V(VIP,VIM),IP,IN),0)}
C1          VO GNDF {CC}
GR1          VO GNDF VALUE =  {IF(V(PD) >= VON,V(VO,GNDF)/RC,V(VO,GNDF)/ROFF)}
.ENDS


**************************************
**                                  **
**                                  **
**                                  **
**                                  **
**************************************

.SUBCKT OUT_CURRENT_CLAMP_PD_0   IN  OUT  PD
+PARAMS: RON = 1 ROFF = 1G   VON = 0.5 IMAX = 10M  IMIN = -10M
GRES  IN OUT VALUE = {LIMIT(IF(V(PD) >= VON,1,0)*V(IN,OUT)/RON
+ + IF(V(PD) >= VON,0,1)*V(IN,OUT)/ROFF,IMAX,IMIN)}
.ENDS


**** INVERTER *********************************************************************************************
*$
.SUBCKT IV110_0  A Y DVDD DVSS PARAMS: RDRV=10K RDLY=10K CDLY=0.1PF DIV=2
RA A DVSS 1E11
CA A DVSS 0.01PF
EINV YI 0 VALUE={IF(V(A,DVSS) > (V(DVDD,DVSS)/{DIV}), V(DVSS), V(DVDD))}
RD YI YP {RDLY}
CD YP DVSS {CDLY}
EOUT YPP DVSS YP DVSS 1
RDR YPP Y {RDRV}
RO Y DVSS 1E11
.ENDS IV110_0
*$


**************************************
**                                  **
**                                  **
**                                  **
**                                  **
**************************************

.SUBCKT PSRR_0   VDD  VSS  VI  VO  GNDF PARAMS: PSRR = 130 FPSRR = 1.6
.PARAM PI = 3.141592
.PARAM RPSRR = 1
.PARAM GPSRR = {PWR(10,-PSRR/20)/RPSRR}
.PARAM LPSRR = {RPSRR/(2*PI*FPSRR)}
G1  GNDF 1 VDD VSS {GPSRR}
R1  1 2 {RPSRR}
L1  2 GNDF {LPSRR} IC = 0
E1  VO VI 1 GNDF 1
C2  VDD VSS 10P IC = 0
.ENDS


.SUBCKT TF_0    VI  VO  GNDF
+ PARAMS: FZ1 = 10G FZ2 = 10G FZ3 = 10G FZ4 = 10G FZ5 = 10G
+ FP1 = 1 FP2 = 10G FP3 = 10G FP4 = 10G
.PARAM GM = 1M
.PARAM RO = {1/GM}
.PARAM PI = 3.141592

GP1  GNDF VP1 VI GNDF {GM}
GRP1 VP1 GNDF VALUE = {V(VP1,GNDF)/RO}
CP1  VP1 GNDF {1/(2*PI*RO*FP1)}

GP2  GNDF VP2 VP1 GNDF {GM}
GRP2 VP2 GNDF VALUE = {V(VP2,GNDF)/RO}
CP2  VP2 GNDF {1/(2*PI*RO*FP2)}

GP3  GNDF VP3 VP2 GNDF {GM}
GRP3 VP3 GNDF VALUE = {V(VP3,GNDF)/RO}
CP3  VP3 GNDF {1/(2*PI*RO*FP3)}

GP4  GNDF VP4 VP3 GNDF {GM}
GRP4 VP4 GNDF VALUE = {V(VP4,GNDF)/RO}
CP4  VP4 GNDF {1/(2*PI*RO*FP4)}

GZ1  GNDF VZ1 VP4 GNDF {GM}
GRZ1  VZ1 VX1 VALUE =  {V(VZ1,VX1)/RO}
LZ1  VX1 GNDF {RO/(2*PI*FZ1)}

GZ2  GNDF VZ2 VZ1 GNDF {GM}
GRZ2  VZ2 VX2 VALUE =  {V(VZ2,VX2)/RO}
LZ2  VX2 GNDF {RO/(2*PI*FZ2)}

GZ3  GNDF VZ3 VZ2 GNDF {GM}
GRZ3  VZ3 VX3 VALUE =  {V(VZ3,VX3)/RO}
LZ3  VX3 GNDF {RO/(2*PI*FZ3)}

GZ4  GNDF VZ4 VZ3 GNDF {GM}
GRZ4  VZ4 VX4 VALUE =  {V(VZ4,VX4)/RO}
LZ4  VX4 GNDF {RO/(2*PI*FZ4)}

GZ5  GNDF VO VZ4 GNDF {GM}
GRZ5  VO VX5  VALUE = {V(VO,VX5)/RO}
LZ5  VX5 GNDF {RO/(2*PI*FZ5)}

.ENDS



**************************************
**          **
**                       **
**             **
**             **
**************************************

.SUBCKT IQ_IOFF_0   VDD VSS PD
+ PARAMS: VON = 0.5 IQQ = 1M  IOFF = 1P
G1 VDD VSS VALUE = {IF(V(PD) >= VON,IQQ,IOFF)}
.ENDS


**************************************
**                                  **
**                                  **
**                                  **
**                                  **
**************************************

.SUBCKT IDEAL_DIODE_0  A C
+PARAMS: EMCO = 0.01 BRKV = 60 IBRKV = 1M)
D1 A C IDIODE
.MODEL IDIODE D(N = {EMCO} BV = {BRKV} IBV = {IBRKV})
.ENDS


**************************************
**                                  **
**                                  **
**                                  **
**                                  **
**************************************
.SUBCKT GND_FLOAT_0   VDD VSS GNDF
EGNDF  GNDF 0 VALUE = {(V(VDD)+V(VSS))*0.5}
.ENDS


**************************************
**                                  **
**                                  **
**                                  **
**                                  **
**************************************

.SUBCKT AMETER_0   VI  VO VIMON
+ PARAMS: GAIN = 1
VSENSE VI VO DC = 0
EMETER VIMON 0 VALUE = {I(VSENSE)*GAIN}
.ENDS


**************************************
**                                  **
**                                  **
**                                  **
**                                  **
**************************************

.SUBCKT VCLAMP_W_SENSE_0   VDD  VSS  VI  VO VIMON  GNDF
+ PARAMS: VMAXIO = 0.1 VMINIO = 0.1 SLOPE = 20
EPCLIP  VDD_CLP 0 VALUE = {V(VDD,GNDF) - SLOPE*V(VIMON) - VMAXIO}
ENCLIP  VSS_CLP 0 VALUE = {V(VSS,GNDF) - SLOPE*V(VIMON) + VMINIO}
*EPCLIP  VDD_CLP 0 VALUE = {V(VDD,GNDF) -  VMAXIO}
*ENCLIP  VSS_CLP 0 VALUE = {V(VSS,GNDF)  + VMINIO}
ECLAMP  VO GNDF VALUE = {LIMIT(V(VI,GNDF), V(VDD_CLP), V(VSS_CLP))}
.ENDS


**************************************
**                                  **
**                                  **
**                                  **
**                                  **
**************************************

.SUBCKT VCLAMP_0   VDD  VSS  VI  VO  GNDF PARAMS: VMAX = 0.1 VMIN = 0.1
ECLAMP  VO GNDF VALUE = {LIMIT(V(VI,GNDF),V(VDD,GNDF) - VMAX, V(VSS,GNDF) + VMIN)}
.ENDS


**************************************
**                                  **
**                                  **
**                                  **
**                                  **
**************************************

.SUBCKT CMRR_0   VI  VO  GNDF PARAMS: CMRR = 130 FCMRR = 1.6K
.PARAM PI = 3.141592
.PARAM RCMRR = 1
.PARAM GCMRR = {PWR(10,-CMRR/20)/RCMRR}
.PARAM LCMRR = {RCMRR/(2*PI*FCMRR)}
G1  GNDF 1 VI GNDF {GCMRR}
R1  1 2 {RCMRR}
L1  2 GNDF {LCMRR} IC = 0
E1  VI VO 1 GNDF 1
.ENDS


* BEGIN PROG NSE FEMTO AMP/RT-HZ
.SUBCKT FEMT_0  1 2 PARAMS: NLFF = 0.1 FLWF = 0.001 NVRF = 0.1
* BEGIN SETUP OF NOISE GEN - FEMPTOAMPS/RT-HZ
* INPUT THREE VARIABLES
* SET UP INSE 1/F
********************
* FA/RHZ AT 1/F FREQ
* NLFF
********************
* FREQ FOR 1/F VAL
* FLWF
********************
* SET UP INSE FB
* FA/RHZ FLATBAND
* NVRF
********************
* END USER INPUT
* START CALC VALS
.PARAM GLFF={PWR(FLWF,0.25)*NLFF/1164}
.PARAM RNVF={1.184*PWR(NVRF,2)}
.MODEL DVNF D KF={PWR(FLWF,0.5)/1E11} IS=1.0E-16
* END CALC VALS
I1 0 7 10E-3
I2 0 8 10E-3
D1 7 0 DVNF
D2 8 0 DVNF
E1 3 6 7 8 {GLFF}
R1 3 0 1E9
R2 3 0 1E9
R3 3 6 1E9
E2 6 4 5 0 10
R4 5 0 {RNVF}
R5 5 0 {RNVF}
R6 3 4 1E9
R7 4 0 1E9
G1 1 2 3 4 1E-6
C1 1 0 1E-15
C2 2 0 1E-15
C3 1 2 1E-15
.ENDS
* END PROG NSE FEMTO AMP/RT-HZ


* BEGIN PROG NSE NANO VOLT/RT-HZ
.SUBCKT VNSE_0  1 2 PARAMS: NLF = 10 FLW = 4  NVR = 4.6
* BEGIN SETUP OF NOISE GEN - NANOVOLT/RT-HZ
* INPUT THREE VARIABLES
* SET UP VNSE 1/F
********************
* NV/RHZ AT 1/F FREQ
* NLF
********************
* FREQ FOR 1/F VAL
* FLW
********************
* SET UP VNSE FB
* NV/RHZ FLATBAND
* NVR
********************
* END USER INPUT
* START CALC VALS
.PARAM GLF={PWR(FLW,0.25)*NLF/1164}
.PARAM RNV={1.184*PWR(NVR,2)}
.MODEL DVN D KF={PWR(FLW,0.5)/1E11} IS=1.0E-16
* END CALC VALS
I1 0 7 10E-3
I2 0 8 10E-3
D1 7 0 DVN
D2 8 0 DVN
E1 3 6 7 8 {GLF}
R1 3 0 1E9
R2 3 0 1E9
R3 3 6 1E9
E2 6 4 5 0 10
R4 5 0 {RNV}
R5 5 0 {RNV}
R6 3 4 1E9
R7 4 0 1E9
E3 1 2 3 4 1
C1 1 0 1E-15
C2 2 0 1E-15
C3 1 2 1E-15
.ENDS
* END PROG NSE NANOV/RT-HZ


**************************************
**                                  **
**                                  **
**                                  **
**                                  **
**************************************

.SUBCKT INPUT_0    VIP  VIN  VOP  VON  GNDF PARAMS: RCM = 1  CCM = 100F  CDM = 100F
C1          VOP GNDF {CCM}
C2          VON GNDF {CCM}
C3          VOP VON {CDM}
G1          VIP VOP VALUE =  {V(VIP,VOP)/RCM}
G2          VIN VON VALUE = {V(VIN,VON)/RCM}
.ENDS


.ENDS lm3886_new


* THS4631
*****************************************************************************
* (C) Copyright 2011 Texas Instruments Incorporated. All rights reserved.
*****************************************************************************
** This model is designed as an aid for customers of Texas Instruments.
** TI and its licensors and suppliers make no warranties, either expressed
** or implied, with respect to this model, including the warranties of
** merchantability or fitness for a particular purpose.  The model is
** provided solely on an "as is" basis.  The entire risk as to its quality
** and performance is with the customer.
*****************************************************************************
*
* This model is subject to change without notice. Texas Instruments
* Incorporated is not responsible for updating this model.
*
*****************************************************************************
*
** Released by: Analog eLab Design Center, Texas Instruments Inc.
* Part: THS4631
* Date: 08JUL2011
* Model Type: ALL IN ONE
* Simulator: PSPICE
* Simulator Version: 16.0.0.p001
* EVM Order Number: N/A
* EVM Users Guide: N/A
* Datasheet: SLOS451A – DECEMBER 2004 – REVISED MARCH 2005
*
* Model Version: 1.0
*
*****************************************************************************
*
* Updates:
*
* Version 1.0 :
* Release to Web
*
*****************************************************************************
*
* THIS MODEL SIMULATES TYPICAL VALUES FOR THE FOLLOWING:
* SETTLING TIME, OUTPUT VOLTAGE LIMIT, INPUT VOLTAGE NOISE, INPUT BIAS CURRENT,
* TYPICAL VALUES FOR INPUT OFFSET VOLTAGE AND OFFSET BIAS CURRENT,
* CURRENT DRAW FROM POWER SUPPLY, OUTPUT IMPEDANCE AND LOADING EFFECTS
* BANDWIDTH IS HIGH IN GAINS OF +1V/V AND +2V/V AND LOW AT HIGHER GAINS
* SLEW RATE IS CORRECT AT 2VSTEP BUT DOES NOT INCREASE WITH STEP SIZE AS ACTUAL DEVICE DOES
* THIS MODEL WILL NOT PROVIDE ACCURATE SIMULATION OF:
* CMRR AND PSRR, INPUT CURRENT NOISE, DISTORTION, INPUT OFFSET, OPEN LOOP GAIN
*
*****************************************************************************
* Node assignments
*                 non-inverting input
*                 |  inverting input
*                 |  |   positive supply
*                 |  |   |    negative supply
*                 |  |   |    |   output
*                 |  |   |    |   |
*                 |  |   |    |   |
*                 |  |   |    |   |
*                 |  |   |    |   |
.SUBCKT THS4631 IN+ IN- Vcc+ Vcc- OUT
*
* INPUT *
J1          06 IN+ 33 NFET 13
J2          07 INM  34 NFET 13
R1         17 06  10
R2         17 07  10
Cin+	IN+ 0	2p
Cin-	IN- 0	2p
IQ+	IN+ 0 -47p
IQ-	IN-  0 -23p
RQ	Vcc+ Vcc- 8k
VIO	IN- INM 200u

* SECOND STAGE *
Q3         08 Vref 33 PNP 0.5
Q6         10 08 09 NPN 0.25
Q4         10 Vref 34 PNP 0.5
Q5         08 09 11 NPN 1
Q7         09 09 12 NPN 1
Cc         0 10   2p
R3         Vcc- 11  333
R4         Vcc- 12  333

* HIGH FREQUENCY SHAPING *
Lhf         18 19  9n
Rhf         13 19  25
Chf         0  13  14p
Ehf         18 0 10 0 1

* OUTPUT *
Q8         13 13 35 PNP 1
Q9         13 13 14 NPN 1
Q10         Vcc+ 35 15 NPN 12
Q11         Vcc- 14 16 PNP 14
*R5         OUT 15  10
*R7         16 OUT  10
R5         20 15  5
R7         16 20  5

* COMPLEX OUTPUT IMPEDANCE *
R8         32 20  5
R9         31 20  5
L1         31 OUT  5n
C1         32 OUT  15p

* BIAS SOURCES *
I1         Vcc+ 33  DC 1.3e-3
I2         Vcc+ 34  DC 1.3e-3
I3         Vcc- 35  DC 1.2e-3
I4         17 Vcc-  DC 1.3e-3
I5         14 Vcc-  DC 1.2e-3
V1         Vcc+ Vref DC 2

* MODELS *
.MODEL NFET NJF VTO=-2 BETA=100E-6 LAMBDA=1.0000E-8 IS=100.00E-16 ALPHA=1.0000E-6 VK=1
+ RD=1 RS=1 CGD=0 CGS=0 KF=4.0000E-17 BETATCE=-.5 VTOTC=-2.5000E-3

.MODEL NPN NPN AF=1 BF=100 BR=1 CJC=0 CJE=0 CJS=0 EG=1.11 FC=0.5 GAMMA=1E-11
+IKF=1E9 IKR=1E9 IRB=1E9 IS=1E-16 ISC=0 ISE=0 ISS=0 ITF=0 KF=0 MJC=0.33
+MJE=0.33 NC= 2 NE=1.5 NF=1 NK=0.5 NR=1 PTF=0 QCO=0 RB=0 RBM=0 RC=0 RCO=0 RE=0
+TF=0 TR=0 VAF=1E9 VAR=1E9 VJC=0.75 VJE=0.75 VO=10 VTF=1E9
+XCJC=1 XCJC2=1 XTB=0 XTF=0 XTI=3

.MODEL PNP PNP AF=1 BF=100 BR=1 CJC=0 CJE=0 CJS=0 EG=1.11 FC=0.5 GAMMA=1E-11
+IKF=1E9 IKR=1E9 IRB=1E9 IS=1E-16 ISC=0 ISE=0 ISS=0 ITF=0 KF=0 MJC=0.33
+MJE=0.33 NC= 2 NE=1.5 NF=1 NK=0.5 NR=1 PTF=0 QCO=0 RB=0 RBM=0 RC=0 RCO=0 RE=0
+TF=0 TR=0 VAF=1E9 VAR=1E9 VJC=0.75 VJE=0.75 VO=10 VTF=1E9
+XCJC=1 XCJC2=1 XTB=0 XTF=0 XTI=3

.ENDS THS4631

* AD620 SPICE Macro-model
* Description: Amplifier
* Generic Desc: 30/36V Bipolar, Inamp, prec  G=1-10,000
* Developed by: ARG/ADSC
* Revision History: 08/10/2012 - Updated to new header style
* 2.0 - Added V2,V3,V12,V13 and D3,D4,D15,D16 to clamp inputs to Q3,Q4 to prevent output phase reversal.
* Copyright 1990, 2012 by Analog Devices, Inc.
*
* Refer to http://www.analog.com/Analog_Root/static/techSupport/designTools/spiceModels/license/spice_general.html for License Statement. Use of this model
* indicates your acceptance with the terms and provisions in the License Statement.
*
* BEGIN Notes:
*
* Not Modeled:
*
* Parameters modeled include:
*
* END Notes
*
* Node assignments
*                 non-inverting input
*                 |  inverting input
*                 |  |  positive supply
*                 |  |  |  negative supply
*                 |  |  |  |  output
*                 |  |  |  |  |  ref
*                 |  |  |  |  |  |  rg1
*                 |  |  |  |  |  |  |  rg2
*                 |  |  |  |  |  |  |  |
.SUBCKT AD620     1  2  99 50 46 20 7  8
*
* INPUT STAGE
*
I1   7    50   5.0005E-6
I2   8    50   5.0005E-6
IOS  3    4    0.15E-9
VIOS 21   3    15E-6
CCM  3    4    2E-12
CD1  3    0    2E-12
CD2  4    0    2E-12
Q1   5    4    7    QN1
Q2   6    21   8    QN1
D1   7    4    DX
D2   8    21   DX
R1   1    3    400
R2   2    4    400
R3   99   5    100E3
R4   99   6    100E3
R5   7    9    24.7E3
R6   8    10   24.7E3
E1   9    46   (11,5) 375E6
E2   10   46   (11,6) 375E6
V1   99   11   0.5
RV1  99   11   1E3
CC1  5    9    4E-12
CC2  6    10   4E-12
*
* DIFFERENCE AMPLIFIER AND POLE AT 1MHZ
*
I3   18   50   5E-6
R7   99   12   19.099E3
R8   99   15   19.099E3
R9   14   18   8.754E3
R10  17   18   8.754E3
R11  9    13   10E3
R12  13   46   10E3
Q3   12   13   14   QN2
Q4   15   16   17   QN2
R13  19   16   10E3
R14  16   20   10E3
C1   12   15   2.083E-12
EOOS 19   10   POLY(1) (38,98) 200E-6 31.623
EREF 98   0    POLY(2) (99,0) (50,0) 0 0.5 0.5
D3 13 51 DX
D4 16 52 DX
V2 99 51 0.7
V3 99 52 0.7
D15 53 13 DX
D16 54 16 DX
V12 53 50 0.7
V13 54 50 0.7
*
* GAIN STAGE AND DOMINANT POLE AT 0.667HZ
*
R16  25   98   57.296E9
C2   25   98   4.167E-12
G1   98   25   (12,15) 52.360E-6
V6   99   26   1.53
V7   27   50   1.33
D7   25   26   DX
D8   27   25   DX
*
* POLE AT 10MHZ
*
R17  40   98   1
C3   40   98   15.916E-9
G2   98   40   (25,98) 1
*
* COMMON MODE STAGE WITH ZERO AT 100HZ
*
E3   36   98   POLY(2) (1,98) (2,98) 0 0.5 0.5
R18  36   38   1E6
R19  38   98   1
C5   36   38   1.592E-9
*
* OUTPUT STAGE
*
GSY  99   50   POLY(1) (99,50) 0.7725E-3 3.125E-6
RO1  99   45   250
RO2  45   50   250
L1   45   46   1E-6
GO1  45   99   (99,40) 4E-3
GO2  50   45   (40,50) 4E-3
GC1  43   50   (40,45) 4E-3
GC2  44   50   (45,40) 4E-3
F1   45   0    V4 1
F2   0    45   V5 1
V4   41   45   1.65
V5   45   42   1.65
D9   50   43   DY
D10  50   44   DY
D11  99   43   DX
D12  99   44   DX
D13  40   41   DX
D14  42   40   DX
*
* MODELS USED
*
.MODEL DX D(IS=1E-12)
.MODEL DY D(IS=1E-12 BV=50)
.MODEL QN1 NPN(BF=10E3 KF=0.7E-15 AF=1)
.MODEL QN2 NPN(BF=250 KF=0.5E-14 AF=1)
.ENDS AD620

* OP400G SPICE Macro-model
* Description: Amplifier
* Generic Desc: 6/30V, BIP, OP, Low Vos, Low Isy, 4X
* Developed by: AAG / PMI
* Revision History: 08/10/2012 - Updated to new header style
* 2.0 (12/1990) - Re-ordered subcircuit call out nodes to put the output node last.
*    		- Changed Ios from 3.5E-9 to 1.75E-9
* Copyright 1990, 2012 by Analog Devices, Inc.
*
* Refer to http://www.analog.com/Analog_Root/static/techSupport/designTools/spiceModels/license/spice_general.html for License Statement. Use of this model
* indicates your acceptance with the terms and provisions in the License Statement.
*
* BEGIN Notes:
*
* Not Modeled:
*
* Parameters modeled include:
* This version of the OP-400 model simulates the worst case
* parameters of the 'G' grade.  The worst case parameters
* used correspond to those in the data sheet.
*
* END Notes
*
* Node assignments
*               non-inverting input
*               | inverting input
*               | | positive supply
*               | | |   negative supply
*               | | |   |   output
*               | | |   |   |
.SUBCKT OP400G  1 2 100 101 29
*
* INPUT STAGE & POLE AT 4.5 MHZ
*
RI1 2 9 1K
RI2 1 10 1K
IOS 10 9 1.75N
CIN 9 10 3.2P
R1 9 3 3.69MEG
R2 3 10 3.69MEG
D1 10 9 DX
D2 9 10 DX
R3 100 5 517.2
R4 100 6 517.2
C2 5 6 34.192P
EOS 11 10 POLY(1) 20 23 300U 1
Q1 5 9 4 QX
Q2 6 11 4 QX
I1 4 101 0.1M
*
* FIRST GAIN STAGE
*
EREF 12 0 23 0 1
G1 12 13 5 6 117.81
R5 13 12 1
E1 100 14 POLY(1) 100 23 -2.4 1
D3 13 14 DX
E2 15 101 POLY(1) 23 101 -2.4 1
D4 15 13 DX
*
* SECOND GAIN STAGE & DOMINANT POLE AT 0.417 HZ
*
G2 12 16 13 23 33.33U
R6 16 12 381.97MEG
C3 16 12 1000P
V1 100 17 DC 3.9725
D5 16 17 DX
V2 18 101 DC 3.9725
D6 18 16 DX
*
* COMMON-MODE GAIN NETWORK WITH ZERO AT 632.49 HZ
*
ECM 19 12 3 23 3.1623
R7 19 20 1MEG
R8 20 12 1
C4 19 20 251.63P
*
* POLE AT 4.5 MHZ
*
G3 12 21 16 23 1U
R9 21 12 1MEG
C5 21 12 35.368F
*
* POLE AT 4.5 MHZ
*
G4 12 22 21 23 1U
R10 22 12 1MEG
C6 22 12 35.368F
*
* OUTPUT STAGE
*
R11 100 23 533.33K
R12 23 101 533.33K
IDC 100 101 DC 597U
V3 25 28 DC 2.9
D7 22 25 DX
V4 28 26 DC 3.025
D8 26 22 DX
D9 100 24 DX
D10 100 27 DX
G5 24 101 22 28 4M
D11 101 24 DY
G6 27 101 28 22 4M
D12 101 27 DY
G7 28 100 100 22 4M
R13 100 28 250
G8 101 28 22 101 4M
R14 28 101 250
L1 28 29 0.7U
*
* MODELS USED
*
.MODEL QX NPN(BF=7143)
.MODEL DX D(IS=1E-15)
.MODEL DY D(IS=1E-15 BV=50)
.ENDS
* AD549 SPICE Macro-model
* Description: Amplifier
* Generic Desc: 5/30V, JFET, OP, Low Ib, Precision, 1X
* Developed by:
* Revision History: 08/10/2012 - Updated to new header style
* 1.1 ADSJ-HH 02/11 Changed some comment lines; delete spurious character on E3 line
* 1.0 ADSJ-HH 08/09
* Copyright 2009, 2012 by Analog Devices, Inc.
*
* Refer to http://www.analog.com/Analog_Root/static/techSupport/designTools/spiceModels/license/spice_general.html for License Statement. Use of this model
* indicates your acceptance with the terms and provisions in the License Statement.
*
* BEGIN Notes: CAUTION!!  To aid in convergence, most Spice simulators add a
*  conductance on every node to insure that no node is floating.
*  This is GMIN, and the default value is usually 1E-12.  To properly
*  simulate the low input bias current and low current noise, the
*  Spice simulator options have to be set to the following:
*  .OPTIONS GMIN=0.1f
*  .OPTIONS ABSTOL=0.001pA
*  In many simulations, .OPTIONS STEPGMIN may have to be used.
*
* Not Modeled:
*
* Parameters modeled include:
*	This model simulates typical values at Vs=+/-15V and 25 C only.
* GBW & PM, Ibias, en, in, Ccm, Cdm, Isc, IVR
* Not simulated/implemented – performance over temp and supply voltage
*
* END Notes
*
* Node assignments
*                  Non-inverting input
*                  | inverting input
*                  | | positive supply
*                  | | |  negative supply
*                  | | |  |  output
*                  | | |  |  |
.SUBCKT AD549      1 2 99 50 30
*
* INPUT STAGE
*
RD1   4  50  4.621E+04
RD2   6  50  4.621E+04
Cdiff 1   2  5.400E-13; for 1pF total diff.
Cin1  1  50  0.830E-12
Cin2  2  50  0.830E-12
I1   99   8  1.300E-04
IOS   1   2 10.00E-15
EOS   7   1   POLY(3) (22, 98) (73, 98) (81, 0) 45E-6  1 1 1 1
V1   9a   8  DC  4.1
D1   9a  99  DX
J6   6  2   8   JX;  D G S
J7   4  7   8   JX
Cph  4  5z   0.400E-13
Rph  6  5z   1.00E+03
GB2  7  50    POLY(3) (4, 7) (8, 7) (50, 7) 1.0E-14 -1E-16 -1E-16 -2E-16
*
EREF 98 0    24 0   1
*
* SECOND STAGE & POLE
*
R5   9  98   8.615E+06
C3   9  98   1.000E-08
G1  (9 98)   (4 6)  4.500E-03
V103   132 98     12.3
D103   9 132     DX
V104   133 98    -12.5
D104   133 9      DX
*
* VOLTAGE NOISE GENERATOR
*
VN1  41  0    DC 2
DN1  41 81    DEN
DN2  81 43    DEN
VN2  0  43    DC 2
*
* COMMON-MODE GAIN NETWORK WITH ZERO
*
R10  72 73     4.421E+03
R20  73 98     1.592E-02
C10  72 73     1.000E-06
E3   72 98     POLY(2) (1, 98) (2, 98) 3.449E-00 3.449E-00
*
* PSRR WITH ZERO
*
EPSY 21 98 POLY(1) (50,99) -13.07E+00 1.332694E-01
RPS1 21 22 5.134E+03
RPS2 22 98 1.061E-01
CPS1 21 22 1.000E-06
*
* POLE
*
R13  18 98  1.000E+03
C9   18 98  1.100E-12
G5   98 18  (9 98)  1.000E-03
*
* OUTPUT STAGE
*
R14  24 99     500E3
R15  24 50     500E3
GSY  99 50 POLY(1) (99 50) 468.0E-6 -0.5E-06
R5a  29 99     200
R6a  29 50     200
L1   29 30     1E-09;  30 is output
G6   27 50     18 29  5.000E-03
G7   28 50     29 18  5.000E-03
G5a  29 99     99 18  5.000E-03
G6a  50 29     18 50  5.000E-03
*
V4   25 29     1.244
D5   18 25     DX
V5   29 26     1.244
D6   26 18     DX
F1   29  0     V4  1.00
F2   0  29     V5  1.00
*
D3   99 27     DX
D4   99 28     DX
D7   50 27     DY
D8   50 28     DY
*
* MODELS USED
*
.MODEL JX PJF(BETA=3.00E-04 VTO=-1.000  IS=2E-15 RD=1
+ RS=1 CGD=2E-13 CGS=2E-13)
.MODEL DX   D(IS=1E-15 RS=0 CJO=1E-12)
.MODEL DY   D(IS=1E-15 BV=50 RS=10 CJO=1E-12)
.MODEL DEN  D(IS=1E-12 RS=134100, KF=2.423E-15 AF=1)
.MODEL DIN  D(IS=1E-12 RS=12, KF=0 AF=1)
.ENDS
*$
*****************
* AD8000 Node assignments
*                non-inverting input
*                | inverting input
*                | | positive supply
*                | | |  negative supply
*                | | |  |    output
*                | | |  |    |     Power down
*                | | |  |    |     |
.SUBCKT AD8000   1 2 Vcc Vee Vout  PD
dsl1 98 16 _D1_mod
.MODEL _D1_mod D
Q1 34 3 5 _Q
.MODEL _Q PNP
Q2 43 5 4 _Q1
.MODEL _Q1 NPN
Q4 34 6 4 _Q
Q3 43 3 6 _Q1
X1 Vcc Pdown Pd 0 46 28 SWhyste2
R15 Pdown 0 1meg
Cin1 1 98 1.06p
Cin2 2 98 1p
V1 4 2 DC=0
Fsl 98 16 v1 1
rnoise4 23 98 1
gbuf 98 13 15 98 0.01
f1 98 7 vsl 2
Rgain 7 98 2.5e5
Cgain 7 98 1.067p
dcl1 7 8 _Diode
.MODEL _Diode D N=1
dcl2 9 7 _Diode
dsl2 16 98 _D1_mod
dsl3 16 17 _D1_mod
dsl4 17 16 _D1_mod
rsl 17 18 0.22
vsl 18 98 DC=0
Vcl1 Vcc 8 DC=1.67
Vcl2 9 Vee DC=1.67
Epole 14 98 7 98 1
rpole 14 15 1
cpole 15 98 110p
rnoise1 19 98 23.87m
vnoise1 19 98 DC=0
vnoise2 21 98 DC=0.53
dnoise1 21 19 _D8_mod
.MODEL _D8_mod D KF=1e-9
.MODEL _DI_mod D KF=20e-9
fnoise1 20 98 Vnoise1 1
rnoise2 20 98 1
rnoise3 22 98 25.5u
vnoise3 22 98 DC=0
vnoise4 24 98 DC=0.575
dnoise2 24 22 _DI_mod
fnoise2 23 98 vnoise3 1
rbuf 98 13 100
fcurr 98 40 voc 1
vcur1 26 98 DC=0
vcur2 98 27 DC=0
dcur2 27 40 _D1_mod
dcur1 40 26 _D1_mod
vo1 Vcc 90 DC=0
vo2 Vee 91 DC=0
gout1 90 11 13 Vcc 0.5
gout2 91 11 13 Vee 0.5
rout1 11 90 2
rout2 11 91 2
Voc 11 47 DC=0
rout3 47 98 1meg
dcl3 13 10 _D1_mod
dcl4 12 13 _D1_mod
Vcl3 10 11 DC=-0.445
Vcl4 11 12 DC=-0.445
EBeos 3 1 Value = {V(20,98) + 1M}
GBfbn 2 98 Value = {I(VNOISE3)*1M + 5U}
GBfbp 1 98 Value = {I(VNOISE3)*1M + 5U}
GBgcm 98 7 Value = {V(98)*10U + V(30)*10U}
EBeref 98 0 Value = {V(VCC)*0.5 + V(VEE)*0.5}
EBecmref 30 0 Value = {V(1)*0.5 + V(2)*0.5}
GBfout1 0 Vcc Value = {I(VO1) - I(VCUR1) - 8.8M}
GBfout2 Vee 0 Value = {I(VO2) - I(VCUR2) - 8.8M}
Vcmm 34 Vee DC=1.5
Vcmp Vcc 43 DC=1.5
Vh 28 0 DC=0.6
Vt Vcc 46 DC=2.5
GBIpowdn Vee Vcc Value = {IF(V(PDOWN) < .75*V(VCC) , 7.8M , 0)}
ERout VRVAR 0 Value={ IF (v(pdown) < .75*V(Vcc) , 1Meg , 1m)}
XRout 47 Vout VRVAR 0 Rvar
GBbias1 43 5 Value = {IF(V(PDOWN) < .75*V(VCC) , 0 , 1.625M)}
GBbias2 6 34 Value = {IF(V(PDOWN) < .75*V(VCC) , 0 , 1.625M)}
.ENDS
.SUBCKT SWHYSTE2 NODEMINUS NODEPLUS PLUS MINUS VT VH
S5 NODEPLUS NODEMINUS 8 0 SMOOTHSW
EBCRTL 8 0 Value = {IF(V(PLUS)-V(MINUS) > V(REF) , 1 , 0)}
EBREF REF1 0 Value = {IF(V(8) > 0.5 , V(VT)-V(VH) , V(VT)+V(VH))}
RDEL REF1 REF 100
CDEL REF 0 100P  IC=1.0000
RCONV1 8 0 10MEG
RCONV2 PLUS 0 10MEG
RCONV3 MINUS 0 10MEG
.MODEL SMOOTHSW VSWITCH (RON=1.0000  ROFF=1.0000MEG VON=1 VOFF=0)
.ENDS
*$
.subckt Rvar 101 102 201 202
rin 201 202 1G
r 301 0 1
fcopy 0 301 vsense 1
eout 101 106 poly(2) 201 202 301 0 0 0 0 0 1
vsense 106 102 0; sense iout
.ends
*$
****************************************